LTspice 24.0.12 for Windows
Circuit: * X:\taller-circuitos-tpi\CHECK 3\2024-10-01 lazo corriente.asc
Start Time: Fri Nov  8 19:31:39 2024
Warning: Multiple definitions of model "2scr375p" Type: BJT
Warning: Multiple definitions of model "bc857b" Type: BJT
Warning: Multiple definitions of model "bc847c" Type: BJT
Warning: Multiple definitions of model "bc847b" Type: BJT
solver = Normal
Maximum thread count: 2



gmin = 1e-10
abstol = 1e-10
reltol = 0.003
Early termination of direct N-R iteration.
Direct Newton iteration failed to find .op point.  (Use ".option noopiter" to skip.)
Starting Gmin stepping
Increasing initial diagonal Gmin to 100
Gmin = 100
vernier = 0.5
Gmin = 16.7772
vernier = 0.25
vernier = 0.125
vernier = 0.0625
vernier = 0.03125
Gmin = 14.0358
vernier = 0.015625
vernier = 0.0078125
vernier = 0.00390625
vernier = 0.00195312
Gmin = 13.9134
vernier = 0.000976562
vernier = 0.000488281
Gmin = 0
Gmin stepping succeeded in finding the operating point.

.step cl=1e-06



.step cl=2.2e-06
tnom = 27
temp = 27
method = modified trap
.step cl=1.5e-05


Measurement "f1" FAIL'ed

Total elapsed time: 2.870 seconds.

