LTspice 24.0.12 for Windows
Circuit: * X:\taller-circuitos-tpi\CHECK 3\2024-10-22 lazo corriente.asc
Start Time: Thu Oct 24 19:12:30 2024
Warning: Multiple definitions of model "2scr375p" Type: BJT
Warning: Multiple definitions of model "bc857b" Type: BJT
Warning: Multiple definitions of model "bc847c" Type: BJT
Warning: Multiple definitions of model "bc847b" Type: BJT
solver = Normal
Maximum thread count: 2



gmin = 1e-10
abstol = 1e-10
reltol = 0.003
Early termination of direct N-R iteration.
Direct Newton iteration failed to find .op point.  (Use ".option noopiter" to skip.)
Starting Gmin stepping
Increasing initial diagonal Gmin to 100
Gmin = 100
vernier = 0.5
Gmin = 16.7772
vernier = 0.25
vernier = 0.125
vernier = 0.0625
vernier = 0.03125
Gmin = 14.0358
vernier = 0.015625
vernier = 0.0078125
vernier = 0.00390625
vernier = 0.00195312
Gmin = 13.9134
vernier = 0.000976562
vernier = 0.000488281
Gmin = 0
Gmin stepping failed

Starting source stepping with srcstepmethod=0
Source Step = 3.0303%
Source Step = 33.3333%
Source Step = 40.1574%
Source Step = 40.187%
Source Step = 40.2166%
Source Step = 40.2462%
Source Step = 40.2758%
Source Step = 40.3054%
vernier = 0.00146484
Source Step = 40.3483%
Source Step = 40.3927%
Source Step = 40.4371%
Source Step = 40.4815%
Source Step = 40.5259%
vernier = 0.00219727
Source Step = 40.588%
Source Step = 40.6546%
Source Step = 40.7212%
Source Step = 40.7878%
Source Step = 40.8543%
vernier = 0.0032959
Source Step = 40.9442%
Source Step = 41.0441%
Source Step = 41.144%
Source Step = 41.2439%
Source Step = 41.3437%
vernier = 0.00494385
Source Step = 41.4736%
Source Step = 41.6234%
Source Step = 41.7732%
Source Step = 41.923%
Source Step = 42.0728%
vernier = 0.00741577
Source Step = 42.2601%
Source Step = 42.4848%
Source Step = 42.7095%
Source Step = 42.9343%
Source Step = 43.159%
vernier = 0.0111237
Source Step = 43.4286%
Source Step = 43.7657%
Source Step = 44.1028%
Source Step = 44.4399%
Source Step = 44.777%
vernier = 0.0166855
Source Step = 45.1646%
Source Step = 45.6702%
Source Step = 46.1758%
Source Step = 46.6815%
Source Step = 47.1871%
vernier = 0.0250282
Source Step = 47.7433%
Source Step = 48.5017%
Source Step = 49.2601%
Source Step = 50.0186%
Source Step = 50.777%
vernier = 0.0375423
Source Step = 51.5733%
Source Step = 52.711%
Source Step = 53.8486%
Source Step = 54.9863%
Source Step = 56.1239%
Source Step = 57.2616%
vernier = 0.0563135
Source Step = 58.9681%
Source Step = 60.6745%
Source Step = 62.381%
Source Step = 63.4582%
Source Step = 63.4822%
Source Step = 63.5089%
Source Step = 63.5355%
Source Step = 63.5622%
Source Step = 63.5889%
vernier = 0.00131985
Source Step = 63.6222%
Source Step = 63.6622%
Source Step = 63.7022%
Source Step = 63.7422%
Source Step = 63.7822%
vernier = 0.00197977
Source Step = 63.8302%
Source Step = 63.8902%
Source Step = 63.9501%
Source Step = 64.0101%
Source Step = 64.0701%
vernier = 0.00296966
Source Step = 64.1391%
Source Step = 64.2291%
Source Step = 64.3191%
Source Step = 64.4091%
Source Step = 64.4991%
vernier = 0.00445449
Source Step = 64.5981%
Source Step = 64.7331%
Source Step = 64.868%
Source Step = 65.003%
Source Step = 65.138%
vernier = 0.00668173
Source Step = 65.2797%
Source Step = 65.4822%
Source Step = 65.6847%
Source Step = 65.8872%
Source Step = 66.0896%
Source Step = 66.2921%
vernier = 0.0100226
Source Step = 66.5958%
Source Step = 66.8996%
Source Step = 67.2033%
Source Step = 67.507%
Source Step = 67.8107%
vernier = 0.0150339
Source Step = 68.2511%
Source Step = 68.7067%
Source Step = 69.1622%
Source Step = 69.6178%
Source Step = 70.0734%
vernier = 0.0225508
Source Step = 70.7112%
Source Step = 71.3945%
Source Step = 72.0779%
Source Step = 72.7613%
Source Step = 73.4446%
vernier = 0.0338263
Source Step = 74.3671%
Source Step = 75.3922%
Source Step = 76.4172%
Source Step = 77.4423%
Source Step = 78.4673%
vernier = 0.0507394
Source Step = 79.7999%
Source Step = 81.3374%
Source Step = 82.875%
Source Step = 84.4125%
Source Step = 85.9501%
vernier = 0.0761091
Source Step = 87.872%
Source Step = 90.1784%
Source Step = 90.6576%
Source Step = 90.6937%
Source Step = 90.7297%
Source Step = 90.7658%
Source Step = 90.8018%
Source Step = 90.8378%
Source Step = 90.8739%
Source Step = 90.9099%
Source Step = 90.9459%
Source Step = 90.982%
Source Step = 91.018%
Source Step = 91.0541%
Source Step = 91.0901%
Source Step = 91.1261%
Source Step = 91.1622%
Source Step = 91.1982%
Source Step = 91.2342%
Source Step = 91.2703%
Source Step = 91.3063%
Source Step = 91.3423%
Source Step = 91.3784%
Source Step = 91.4144%
Source Step = 91.4505%
Source Step = 91.4865%
Source Step = 91.5225%
Source Step = 91.5586%
Source Step = 91.5946%
Source Step = 91.6306%
Source Step = 91.6667%
Source Step = 91.7027%
Source Step = 91.7387%
Source Step = 91.7748%
Source Step = 91.8108%
Source Step = 91.8469%
Source Step = 91.8829%
Source Step = 91.9189%
Source Step = 91.955%
Source Step = 91.991%
Source Step = 92.027%
Source Step = 92.0631%
Source Step = 92.0991%
Source Step = 92.1351%
Source Step = 92.1712%
Source Step = 92.2072%
Source Step = 92.2433%
Source Step = 92.2793%
Source Step = 92.3153%
Source Step = 92.3514%
Source Step = 92.3874%
Source Step = 92.4234%
Source Step = 92.4595%
Source Step = 92.4955%
Source Step = 92.5315%
Source Step = 92.5676%
Source Step = 92.6036%
Source Step = 92.6397%
Source Step = 92.6757%
Source Step = 92.7117%
Source Step = 92.7478%
Source Step = 92.7838%
Source Step = 92.8198%
Source Step = 92.8559%
Source Step = 92.8919%
Source Step = 92.9279%
Source Step = 92.964%
Source Step = 93%
Source Step = 93.0361%
Source Step = 93.0721%
Source Step = 93.1081%
Source Step = 93.1442%
Source Step = 93.1802%
Source Step = 93.2162%
Source Step = 93.2523%
Source Step = 93.2883%
Source Step = 93.3243%
Source Step = 93.3604%
Source Step = 93.3964%
Source Step = 93.4325%
Source Step = 93.4685%
Source Step = 93.5045%
Source Step = 93.5406%
Source Step = 93.5766%
Source Step = 93.6126%
Source Step = 93.6487%
Source Step = 93.6847%
Source Step = 93.7208%
Source Step = 93.7568%
Source Step = 93.7928%
Source Step = 93.8289%
Source Step = 93.8649%
Source Step = 93.9009%
Source Step = 93.937%
Source Step = 93.973%
Source Step = 94.009%
Source Step = 94.0451%
Source Step = 94.0811%
Source Step = 94.1172%
Source Step = 94.1532%
Source Step = 94.1892%
Source Step = 94.2253%
Source Step = 94.2613%
Source Step = 94.2973%
Source Step = 94.3334%
Source Step = 94.3694%
Source Step = 94.4054%
Source Step = 94.4415%
Source Step = 94.4775%
Source Step = 94.5136%
Source Step = 94.5496%
Source Step = 94.5856%
Source Step = 94.6217%
Source Step = 94.6577%
Source Step = 94.6937%
Source Step = 94.7298%
Source Step = 94.7658%
Source Step = 94.8018%
Source Step = 94.8379%
Source Step = 94.8739%
Source Step = 94.91%
Source Step = 94.946%
Source Step = 94.982%
Source Step = 95.0181%
Source Step = 95.0541%
Source Step = 95.0901%
Source Step = 95.1262%
Source Step = 95.1622%
Source Step = 95.1982%
Source Step = 95.2343%
Source Step = 95.2703%
Source Step = 95.3064%
Source Step = 95.3424%
Source Step = 95.3784%
Source Step = 95.4145%
Source Step = 95.4505%
Source Step = 95.4865%
Source Step = 95.5226%
Source Step = 95.5586%
Source Step = 95.5946%
Source Step = 95.6307%
Source Step = 95.6667%
Source Step = 95.7028%
Source Step = 95.7388%
Source Step = 95.7748%
Source Step = 95.8109%
Source Step = 95.8469%
Source Step = 95.8829%
Source Step = 95.919%
Source Step = 95.955%
Source Step = 95.9911%
Source Step = 96.0271%
Source Step = 96.0631%
Source Step = 96.0992%
Source Step = 96.1352%
Source Step = 96.1712%
Source Step = 96.2073%
Source Step = 96.2433%
Source Step = 96.2793%
Source Step = 96.3154%
Source Step = 96.3514%
Source Step = 96.3875%
Source Step = 96.4235%
Source Step = 96.4595%
Source Step = 96.4956%
Source Step = 96.5316%
Source Step = 96.5676%
Source Step = 96.6037%
Source Step = 96.6397%
Source Step = 96.6757%
Source Step = 96.7118%
Source Step = 96.7478%
Source Step = 96.7839%
Source Step = 96.8199%
Source Step = 96.8559%
Source Step = 96.892%
Source Step = 96.928%
Source Step = 96.964%
Source Step = 97.0001%
Source Step = 97.0361%
Source Step = 97.0721%
Source Step = 97.1082%
Source Step = 97.1442%
Source Step = 97.1803%
Source Step = 97.2163%
Source Step = 97.2523%
Source Step = 97.2884%
Source Step = 97.3244%
Source Step = 97.3604%
Source Step = 97.3965%
Source Step = 97.4325%
Source Step = 97.4685%
Source Step = 97.5046%
Source Step = 97.5406%
Source Step = 97.5767%
Source Step = 97.6127%
Source Step = 97.6487%
Source Step = 97.6848%
Source Step = 97.7208%
Source Step = 97.7568%
Source Step = 97.7929%
Source Step = 97.8289%
Source Step = 97.8649%
Source Step = 97.901%
Source Step = 97.937%
Source Step = 97.9731%
Source Step = 98.0091%
Source Step = 98.0451%
Source Step = 98.0812%
Source Step = 98.1172%
Source Step = 98.1532%
Source Step = 98.1893%
Source Step = 98.2253%
Source Step = 98.2614%
Source Step = 98.2974%
Source Step = 98.3334%
Source Step = 98.3695%
Source Step = 98.4055%
Source Step = 98.4415%
Source Step = 98.4776%
Source Step = 98.5136%
Source Step = 98.5496%
Source Step = 98.5857%
Source Step = 98.6217%
Source Step = 98.6578%
Source Step = 98.6938%
Source Step = 98.7298%
Source Step = 98.7659%
Source Step = 98.8019%
Source Step = 98.8379%
Source Step = 98.874%
Source Step = 98.91%
Source Step = 98.946%
Source Step = 98.9821%
Source Step = 99.0181%
Source Step = 99.0542%
Source Step = 99.0902%
Source Step = 99.1262%
Source Step = 99.1623%
Source Step = 99.1983%
Source Step = 99.2343%
Source Step = 99.2704%
Source Step = 99.3064%
Source Step = 99.3424%
Source Step = 99.3785%
Source Step = 99.4145%
Source Step = 99.4506%
Source Step = 99.4866%
Source Step = 99.5226%
Source Step = 99.5587%
Source Step = 99.5947%
Source Step = 99.6307%
Source Step = 99.6668%
Source Step = 99.7028%
Source Step = 99.7388%
Source Step = 99.7749%
Source Step = 99.8109%
Source Step = 99.847%
Source Step = 99.883%
Source Step = 99.919%
Source Step = 99.9551%
Source Step = 99.9911%
Source Step = 100%
Source Step = 100%
Source Step = 100%
Source Step = 100%
Source Step = 100%
Source Step = 100%
Source Step = 100%
Source Step = 100%
Source Step = 100%
Source Step = 100%
Source Step = 100%
Source Step = 100%
Source Step = 100%
Source Step = 100%
Source Step = 100%
Source Step = 100%
Source Step = 100%
Source Step = 100%
Source Step = 100%
Source Step = 100%
Source Step = 100%
Source Step = 100%
Source Step = 100%
Source Step = 100%
Source stepping succeeded in finding the operating point.

.step cl=1e-06



.step cl=2.2e-06
tnom = 27
temp = 27
method = modified trap
.step cl=1.5e-05


Measurement: f1
  step	v(n004)	at
     1	(-0.00362289dB,49.3514°)	550537
     2	(-0.00021969dB,55.9002°)	493980
     3	(-0.000443634dB,63.5556°)	475275

Total elapsed time: 645.912 seconds.

