LTspice 24.0.12 for Windows
Circuit: * X:\taller-circuitos-tpi\CHECK 3\Draft2.asc
Start Time: Wed Oct 16 19:08:40 2024
solver = Normal
Maximum thread count: 2
tnom = 27
temp = 27
method = modified trap
Direct Newton iteration for .op point succeeded.
Total elapsed time: 0.070 seconds.

