LTspice 24.0.12 for Windows
Circuit: * X:\taller-circuitos-tpi\CHECK 3\Draft1.asc
Start Time: Wed Oct 16 17:10:07 2024
Warning: Multiple definitions of model "2scr375p" Type: BJT
Warning: Multiple definitions of model "bc857b" Type: BJT
Warning: Multiple definitions of model "bc847c" Type: BJT
Warning: Multiple definitions of model "bc847b" Type: BJT
solver = Normal
Maximum thread count: 2
tnom = 27
temp = 27
method = modified trap
Direct Newton iteration for .op point succeeded.
Total elapsed time: 0.719 seconds.

