LTspice 24.0.12 for Windows
Circuit: * X:\taller-circuitos-tpi\CHECK 4\Simus\pwm\Draft1.asc
Start Time: Thu Nov  7 21:16:04 2024
solver = Normal
Maximum thread count: 2
tnom = 27
temp = 27
method = modified trap
Direct Newton iteration for .op point succeeded.
Total elapsed time: 1.703 seconds.

